Version 4
SHEET 1 1048 1092
WIRE -528 288 -672 288
WIRE -448 288 -528 288
WIRE -384 288 -448 288
WIRE -256 288 -304 288
WIRE -160 288 -256 288
WIRE -80 288 -160 288
WIRE -672 320 -672 288
WIRE -528 320 -528 288
WIRE -448 320 -448 288
WIRE -256 320 -256 288
WIRE -160 320 -160 288
WIRE -672 416 -672 400
WIRE -528 416 -528 384
WIRE -448 416 -448 384
WIRE -256 416 -256 384
WIRE -160 416 -160 384
WIRE -1360 480 -1424 480
WIRE -1232 480 -1280 480
WIRE -896 480 -1120 480
WIRE -256 480 -896 480
WIRE -80 480 -80 288
WIRE -80 480 -256 480
WIRE -848 560 -992 560
WIRE -736 560 -768 560
WIRE -304 576 -432 576
WIRE -80 576 -304 576
WIRE -1424 592 -1424 480
WIRE -1360 592 -1424 592
WIRE -1232 592 -1232 480
WIRE -1232 592 -1280 592
WIRE -1120 592 -1120 480
WIRE -432 608 -432 576
WIRE -256 640 -256 480
WIRE -208 640 -256 640
WIRE -1424 656 -1424 592
WIRE -1232 656 -1232 592
WIRE -896 656 -896 480
WIRE -992 672 -992 560
WIRE -928 672 -992 672
WIRE -208 672 -208 640
WIRE -864 688 -880 688
WIRE -736 688 -736 560
WIRE -736 688 -864 688
WIRE -304 688 -304 576
WIRE -240 688 -304 688
WIRE -1232 704 -1232 656
WIRE -1120 704 -1120 672
WIRE -1120 704 -1136 704
WIRE -928 704 -1120 704
WIRE -176 704 -192 704
WIRE -80 704 -80 576
WIRE -80 704 -176 704
WIRE -736 720 -736 688
WIRE -720 720 -736 720
WIRE -592 720 -640 720
WIRE -544 720 -592 720
WIRE -432 720 -432 672
WIRE -432 720 -464 720
WIRE -400 720 -432 720
WIRE -304 720 -320 720
WIRE -240 720 -304 720
WIRE -1120 736 -1120 704
WIRE -992 736 -992 672
WIRE -1232 752 -1232 736
WIRE -592 784 -592 720
WIRE -304 784 -304 720
WIRE -992 848 -992 816
WIRE -1424 880 -1424 736
WIRE -1232 880 -1232 752
WIRE -1120 880 -1120 816
WIRE -992 944 -992 912
WIRE -896 944 -896 720
WIRE -592 944 -592 848
WIRE -304 944 -304 848
WIRE -208 944 -208 736
FLAG -1232 880 0
FLAG -1120 880 0
FLAG -160 416 0
FLAG -992 944 0
FLAG -592 944 0
FLAG -304 944 0
FLAG -448 416 0
FLAG -256 416 0
FLAG -528 416 0
FLAG -672 416 0
FLAG -1424 880 0
FLAG -896 944 0
FLAG -208 944 0
SYMBOL res -1264 576 R90
WINDOW 0 0 56 VBottom 2
WINDOW 3 32 56 VTop 2
SYMATTR InstName R2
SYMATTR Value 1k
SYMBOL res -1264 464 R90
WINDOW 0 0 56 VBottom 2
WINDOW 3 32 56 VTop 2
SYMATTR InstName R1
SYMATTR Value 1k
SYMBOL res -1008 720 R0
SYMATTR InstName R3
SYMATTR Value 10k
SYMBOL cap -1008 848 R0
SYMATTR InstName C1
SYMATTR Value 470n
SYMBOL res -752 544 R90
WINDOW 0 0 56 VBottom 2
WINDOW 3 32 56 VTop 2
SYMATTR InstName R5
SYMATTR Value 100k
SYMBOL res -1136 576 R0
SYMATTR InstName R6
SYMATTR Value 220k
SYMBOL res -1136 720 R0
SYMATTR InstName R7
SYMATTR Value 220k
SYMBOL res -624 704 R90
WINDOW 0 0 56 VBottom 2
WINDOW 3 32 56 VTop 2
SYMATTR InstName R8
SYMATTR Value 2.4k
SYMBOL res -288 272 R90
WINDOW 0 0 56 VBottom 2
WINDOW 3 32 56 VTop 2
SYMATTR InstName R9
SYMATTR Value 150
SYMBOL res -448 704 R90
WINDOW 0 0 56 VBottom 2
WINDOW 3 32 56 VTop 2
SYMATTR InstName R10
SYMATTR Value 2.4k
SYMBOL res -304 704 R90
WINDOW 0 0 56 VBottom 2
WINDOW 3 32 56 VTop 2
SYMATTR InstName R12
SYMATTR Value 2.4k
SYMBOL cap -1136 688 R90
WINDOW 0 0 32 VBottom 2
WINDOW 3 32 32 VTop 2
SYMATTR InstName C3
SYMATTR Value 100n
SYMBOL cap -544 320 R0
SYMATTR InstName C4
SYMATTR Value 100n
SYMBOL cap -464 320 R0
SYMATTR InstName C5
SYMATTR Value 470µ
SYMBOL cap -176 320 R0
SYMATTR InstName C6
SYMATTR Value 100n
SYMBOL cap -608 784 R0
SYMATTR InstName C7
SYMATTR Value 10n
SYMBOL cap -448 608 R0
SYMATTR InstName C8
SYMATTR Value 27n
SYMBOL cap -320 784 R0
SYMATTR InstName C11
SYMATTR Value 1.5n
SYMBOL Misc\\signal -1424 640 R0
WINDOW 0 -47 16 Left 2
WINDOW 3 -49 -227 Left 2
WINDOW 123 -49 -199 Left 2
WINDOW 39 0 0 Left 2
SYMATTR InstName V1
SYMATTR Value ""
SYMATTR Value2 AC 1
SYMBOL voltage -672 304 R0
SYMATTR InstName V2
SYMATTR Value 13.5
SYMBOL EXTRA\\DIODES.COM\\ZENER\\1N4733A -240 384 R180
WINDOW 0 24 72 Left 2
WINDOW 3 24 0 Left 2
SYMATTR InstName U3
SYMBOL EXTRA\\ExtraOpamps\\LM358_ST -896 688 R0
SYMATTR InstName U4
SYMBOL EXTRA\\ExtraOpamps\\LM358_ST -208 704 R0
SYMATTR InstName U1
SYMBOL EXTRA\\Misc\\pot -1232 704 R180
SYMATTR InstName U2
TEXT -1344 312 Left 2 !.ac oct 100 20 20k
TEXT -1448 368 Left 2 !.inc "C:\\Program Files (x86)\\LTC\\LTspiceIV\\lib\\sub\\Pote.lib"
