Version 4
SHEET 1 1048 1092
WIRE -304 576 -432 576
WIRE -80 576 -304 576
WIRE -432 608 -432 576
WIRE -208 672 -208 640
WIRE -304 688 -304 576
WIRE -240 688 -304 688
WIRE -176 704 -192 704
WIRE -80 704 -80 576
WIRE -80 704 -176 704
WIRE -544 720 -784 720
WIRE -432 720 -432 672
WIRE -432 720 -464 720
WIRE -400 720 -432 720
WIRE -304 720 -320 720
WIRE -240 720 -304 720
WIRE -784 784 -784 720
WIRE -304 784 -304 720
WIRE -784 944 -784 864
WIRE -304 944 -304 848
WIRE -208 944 -208 736
FLAG -304 944 0
FLAG -784 944 0
FLAG -208 944 0
SYMBOL res -448 704 R90
WINDOW 0 0 56 VBottom 2
WINDOW 3 32 56 VTop 2
SYMATTR InstName R10
SYMATTR Value 2.4k
SYMBOL res -304 704 R90
WINDOW 0 0 56 VBottom 2
WINDOW 3 32 56 VTop 2
SYMATTR InstName R12
SYMATTR Value 2.4k
SYMBOL cap -448 608 R0
SYMATTR InstName C8
SYMATTR Value 27n
SYMBOL cap -320 784 R0
SYMATTR InstName C11
SYMATTR Value 1.5n
SYMBOL Misc\\signal -784 768 R0
WINDOW 0 -47 16 Left 2
WINDOW 3 -49 -227 Left 2
WINDOW 123 -49 -199 Left 2
WINDOW 39 0 0 Left 2
SYMATTR InstName V1
SYMATTR Value ""
SYMATTR Value2 AC 1
SYMBOL EXTRA\\ExtraOpamps\\LM358_ST -208 704 R0
SYMATTR InstName U1
TEXT -912 632 Left 2 !.ac oct 100 20 20k
TEXT -808 512 Left 2 !.inc "C:\\Program Files (x86)\\LTC\\LTspiceIV\\lib\\sub\\Pote.lib"
